# diagnostics Package
# Energy terms...
 &diagnostics_list 
# 3D variables.
 frequency(1)  = -1860,
 timePhase(1)      =  0,	
 fields(1:6,1) = 'UVEL    ',
 	       	 'VVEL    ',
		 'WVEL    ',
		 'THETA   ',
		 'SALT    ',
		 'PHIHYD  ',
 filename(1)   = 'statevars'
#
# 2D state vars.  Bummer these can't be in same file as above.
 filename(2)   = 'statevars2d'
 frequency(2)  = -1860,
 timePhase(2)  = 0,
 fields(1:2,2) = 'ETAN    ',
 	         'PHIBOT  ',
#
/

&diag_statis_parms
/
