# Packages
 &PACKAGES
 useOBCS=.TRUE.,
 useKL10=.TRUE.,
 useDIAGNOSTICS=.TRUE.,
 useMNC=.TRUE.,
 /
